/*--------------------------------*- C++ -*----------------------------------*\
  =========                 |
  \\      /  F ield         | OpenFOAM: The Open Source CFD Toolbox
   \\    /   O peration     | Website:  https://openfoam.org
    \\  /    A nd           | Version:  6
     \\/     M anipulation  |
\*---------------------------------------------------------------------------*/
FoamFile
{
    version     2.0;
    format      ascii;
    class       dictionary;
    object      blockMeshDict;
}
// * * * * * * * * * * * * * * * * * * * * * * * * * * * * * * * * * * * * * //
convertToMeters 1;

vertices
(
(0 0 0)
(0 0.15 0)
(0 0 0.095)
(0 0.15 0.095)
(0 0 0.105)
(0 0.15 0.105)
(0 0 0.3)
(0 0.15 0.3)
(0 0 0.33)
(0 0.15 0.33)
(0 -0.03 0.33)
(0 0.18 0.33)
(0 -0.03 0.43)
(0 0.18 0.43)
(0 0 0.43)
(0 0.15 0.43)
(-0.01 0 0)
(-0.01 0.15 0)
(-0.01 0 0.095)
(-0.01 0.15 0.095)
(-0.01 0 0.105)
(-0.01 0.15 0.105)
(-0.01 0 0.3)
(-0.01 0.15 0.3)
(-0.01 0 0.33)
(-0.01 0.15 0.33)
(-0.01 -0.03 0.33)
(-0.01 0.18 0.33)
(-0.01 -0.03 0.43)
(-0.01 0.18 0.43)
(-0.01 0 0.43)
(-0.01 0.15 0.43)
(0 -0.03 0.3)
(-0.01 -0.03 0.3)
(0 0.18 0.3)
(-0.01 0.18 0.3)

);

blocks
(
hex (0 1 17 16 2 3 19 18) (20 20 20) simpleGrading (1 1 1)
hex (2 3 19 18 4 5 21 20) (20 20 20) simpleGrading (1 1 1)
hex (4 5 21 20 6 7 23 22) (20 20 20) simpleGrading (1 1 1)
hex (6 7 23 22 8 9 25 24) (20 20 20) simpleGrading (1 1 1)
hex (32 6 22 33 10 8 24 26) (20 20 20) simpleGrading (1 1 1)
hex (7 34 35 23 9 11 27 25) (20 20 20) simpleGrading (1 1 1)
hex (10 8 24 26 12 14 30 28) (20 20 20) simpleGrading (1 1 1)
hex (9 11 27 25 15 13 29 31) (20 20 20) simpleGrading (1 1 1)
);
