/*--------------------------------*- C++ -*----------------------------------*\
  =========                 |
  \\      /  F ield         | OpenFOAM: The Open Source CFD Toolbox
   \\    /   O peration     | Website:  https://openfoam.org
    \\  /    A nd           | Version:  6
     \\/     M anipulation  |
\*---------------------------------------------------------------------------*/
FoamFile
{
    version     2.0;
    format      ascii;
    class       dictionary;
    location    "system";
    object      controlDict;
}
// * * * * * * * * * * * * * * * * * * * * * * * * * * * * * * * * * * * * * //

application     reactingFoam;

startFrom       latestTime;

startTime       0;

stopAt          endTime;

endTime         5000;

deltaT          1;

writeControl    runTime;

writeInterval   100;

purgeWrite      0;

writeFormat     binary;

writePrecision  10;

writeCompression off;

timeFormat      general;

timePrecision   6;

runTimeModifiable true;

functions
{

// mass flow rate data
#includeFunc flowRatePatch(name=outlet_LHS)
#includeFunc flowRatePatch(name=outlet_RHS)
#includeFunc flowRatePatch(name=primary_inlets)
#includeFunc flowRatePatch(name=L_fuel)
#includeFunc flowRatePatch(name=R_fuel)
#includeFunc flowRatePatch(name=top_fuel)
#includeFunc flowRatePatch(name=secondary_air_LHS)
#includeFunc flowRatePatch(name=secondary_air_RHS)
#includeFunc wallHeatFlux(name=pot_surfaces)
#includeFunc wallHeatFlux(name=stove_body)





// ************************************************************************* //
