/*--------------------------------*- C++ -*----------------------------------*\
  =========                 |
  \\      /  F ield         | OpenFOAM: The Open Source CFD Toolbox
   \\    /   O peration     | Website:  https://openfoam.org
    \\  /    A nd           | Version:  6
     \\/     M anipulation  |
\*---------------------------------------------------------------------------*/
FoamFile
{
    version     2.0;
    format      ascii;
    class       dictionary;
    object      blockMeshDict;
}
// * * * * * * * * * * * * * * * * * * * * * * * * * * * * * * * * * * * * * //
convertToMeters 1;

vertices
(
(0 0 0)
(0 0.13 0)
(0 0 0.045)
(0 0.13 0.045)
(0 0 0.055)
(0 0.13 0.055)
(0 0 0.2)
(0 0.13 0.2)
(0 0 0.23)
(0 0.13 0.23)
(0 -0.05 0.2)
(0 0.185 0.2)
(0 -0.05 0.23)
(0 0.185 0.23)
(0 -0.07 0.2)
(0 0.205 0.2)
(0 -0.07 0.23)
(0 0.205 0.23)
(0 -0.07 0.33)
(0 0.205 0.33)
(0 -0.05 0.33)
(0 0.185 0.33)
(-0.01 0 0)
(-0.01 0.13 0)
(-0.01 0 0.045)
(-0.01 0.13 0.045)
(-0.01 0 0.055)
(-0.01 0.13 0.055)
(-0.01 0 0.2)
(-0.01 0.13 0.2)
(-0.01 0 0.23)
(-0.01 0.13 0.23)
(-0.01 -0.05 0.2)
(-0.01 0.185 0.2)
(-0.01 -0.05 0.23)
(-0.01 0.185 0.23)
(-0.01 -0.07 0.2)
(-0.01 0.205 0.2)
(-0.01 -0.07 0.23)
(-0.01 0.205 0.23)
(-0.01 -0.07 0.33)
(-0.01 0.205 0.33)
(-0.01 -0.05 0.33)
(-0.01 0.185 0.33)

);

blocks
(
hex (0 1 23 22 2 3 25 24) (5 5 5) simpleGrading (1 1 1)
hex (2 3 25 24 4 5 27 26) (5 5 5) simpleGrading (1 1 1)
hex (4 5 27 26 6 7 29 28) (5 5 5) simpleGrading (1 1 1)
hex (6 7 29 28 8 9 31 30) (5 5 5) simpleGrading (1 1 1)
hex (10 6 28 32 12 8 30 34) (5 5 5) simpleGrading (1 1 1)
hex (7 11 33 29 9 13 35 31) (5 5 5) simpleGrading (1 1 1)
hex (14 10 32 36 16 12 34 38) (5 5 5) simpleGrading (1 1 1)
hex (11 15 37 33 13 17 39 35) (5 5 5) simpleGrading (1 1 1)
hex (16 12 34 38 18 20 42 40) (5 5 5) simpleGrading (1 1 1)
hex (13 17 39 35 21 19 41 43) (5 5 5) simpleGrading (1 1 1)
);

edges
(
);

boundary
(
outlet_LHS
{
type patch;
faces
(
(18 20 42 40)
);
}
outlet_RHS
{
type patch;
faces
(
(21 19 41 43)
);
}
secondary_air_RHS
{
type patch;
faces
(
(3 25 27 5)
);
}
secondary_air_LHS
{
type patch;
faces
(
(2 24 26 4)
);
}
primary_inlet
{
type patch;
faces
(
(0 1 23 22)
);
}
stove_body
{
type patch;
faces
(
(0 22 24 2)
(1 23 25 3)
(4 26 28 6)
(5 27 29 7)
(10 6 28 32)
(7 11 33 29)
(14 10 32 36)
(11 15 37 33)
(14 36 38 16)
(15 37 39 17)
(16 38 40 18)
(17 39 41 19)
);
}
pot_surfaces
{
type patch;
faces
(
(12 34 42 20)
(12 8 30 34)
(8 9 31 30)
(9 13 35 31)
(13 35 43 21)
);
}

frontAndBack
{
type empty;
faces
(
(0 1 3 2)
(22 23 25 24)
(2 3 5 4)
(24 25 27 26)
(4 5 7 6)
(26 27 29 28)
(6 7 9 8)
(28 29 31 30)
(10 6 8 12)
(32 28 30 34)
(7 11 13 9)
(29 33 35 31)
(14 10 12 16)
(36 32 34 38)
(11 15 17 13)
(33 37 39 35)
(16 12 20 18)
(38 34 42 40)
(13 17 19 21)
(35 39 41 43)
);
}
);

mergePatchPairs
(
);
// ************************************************************************* //