/*--------------------------------*- C++ -*----------------------------------*\
  =========                 |
  \\      /  F ield         | OpenFOAM: The Open Source CFD Toolbox
   \\    /   O peration     | Website:  https://openfoam.org
    \\  /    A nd           | Version:  6
     \\/     M anipulation  |
\*---------------------------------------------------------------------------*/
FoamFile
{
    version     2.0;
    format      ascii;
    class       volScalarField;
    location    "0";
    object      O2;
}
// * * * * * * * * * * * * * * * * * * * * * * * * * * * * * * * * * * * * * //

dimensions      [0 0 0 0 0 0 0];

internalField  uniform 0.231843;

boundaryField
{
    primary_inlet
    {
        type            fixedValue;
        value           uniform 0.231843;
    }
	secondary_air_RHS
    {
        type            fixedValue;
        value           uniform 0.231843;
    }
	secondary_air_LHS
    {
        type            fixedValue;
        value           uniform 0.231843;
    }
    outlet_LHS
    {
        type            inletOutlet;
        inletValue      uniform 0.231843;
        value           uniform 0.231843;
    }
	outlet_RHS
    {
        type            inletOutlet;
        inletValue      uniform 0.231843;
        value           uniform 0.231843;
    }
    stove_body
    {
        type            zeroGradient;
    }
	pot_surfaces
    {
        type            zeroGradient;
    }
}


// ************************************************************************* //
